tests/data/state_estimation/ill-conditioned-system/grid1-no-capacitance/asym_output.json
{
  "version": "1.0",
  "type": "asym_output",
  "is_batch": false,
  "attributes": {},
  "data": {
    "node": [
      {"id": 0, "energized": 1, "u_pu": [0.9947061877982084, 0.9947061877982086, 0.9947061877982075], "u": [5742.93885289882, 5742.938852898822, 5742.938852898816], "u_angle": [-0.007066394337767047, -2.101461496730962, 2.087328708055428], "p": [501035.9177205032, 501035.9177204924, 501035.9177205171], "q": [301035.9177205591, 301035.9177205543, 301035.9177205773]},
      {"id": 1, "energized": 1, "u_pu": [0.9922873497821693, 0.9922873497821699, 0.9922873497821685], "u": [5728.973685101958, 5728.973685101962, 5728.973685101953], "u_angle": [-0.007674275944600129, -2.102069378337795, 2.086720826448595], "p": [-499999.9999999756, -499999.9999999649, -499999.9999999893], "q": [-300000.0000000313, -300000.0000000268, -300000.0000000495]},
      {"id": 2, "energized": 1, "u_pu": [0.9922873497821693, 0.9922873497821699, 0.9922873497821685], "u": [5728.973685101958, 5728.973685101962, 5728.973685101953], "u_angle": [-0.007674275944600113, -2.102069378337795, 2.086720826448595], "p": [0, -0, 0], "q": [-0, 0, 0]}
    ],
    "line": [
      {"id": 3, "energized": 1, "p_from": [501035.9177205032, 501035.9177204924, 501035.9177205171], "q_from": [301035.9177205591, 301035.9177205543, 301035.9177205773], "i_from": [101.7800432564123, 101.7800432564103, 101.7800432564161], "s_from": [584516.5648669729, 584516.5648669612, 584516.5648669942], "p_to": [-499999.9999999756, -499999.9999999649, -499999.9999999893], "q_to": [-300000.0000000313, -300000.0000000268, -300000.0000000495], "i_to": [101.7800432564123, 101.7800432564103, 101.7800432564161], "s_to": [583095.1894845252, 583095.1894845137, 583095.1894845464]},
      {"id": 4, "energized": 1, "p_from": [0, -0, 0], "q_from": [-0, 0, 0], "i_from": [0, 0, 0], "s_from": [0, 0, 0], "p_to": [0, -0, 0], "q_to": [-0, 0, 0], "i_to": [0, 0, 0], "s_to": [0, 0, 0]}
    ],
    "source": [
      {"id": 5, "energized": 1, "p": [501035.9177205033, 501035.9177204923, 501035.9177205171], "q": [301035.9177205591, 301035.9177205543, 301035.9177205774], "i": [101.7800432564123, 101.7800432564103, 101.7800432564161], "s": [584516.564866973, 584516.5648669611, 584516.5648669943], "pf": [0.857180014794844, 0.8571800147948427, 0.8571800147948365]}
    ],
    "sym_load": [
      {"id": 6, "energized": 1, "p": [500000, 500000, 500000], "q": [299999.9999999999, 299999.9999999999, 299999.9999999999], "i": [101.7800432564132, 101.7800432564131, 101.7800432564133], "s": [583095.1894845299, 583095.1894845299, 583095.1894845299], "pf": [0.8574929257125444, 0.8574929257125444, 0.8574929257125444]}
    ]
  }
}