tests/data/state_estimation/ill-conditioned-system/grid1-no-capacitance/sym_output.json
{
  "version": "1.0",
  "type": "sym_output",
  "is_batch": false,
  "attributes": {},
  "data": {
    "node": [
      {
        "id": 0,
        "energized": 1,
        "u_pu": 0.9947061877982075,
        "u": 9947.061877982074,
        "u_angle": -0.007066394337767276,
        "p": 1503107.753161622,
        "q": 903107.7531616191
      },
      {
        "id": 1,
        "energized": 1,
        "u_pu": 0.9922873497821686,
        "u": 9922.873497821685,
        "u_angle": -0.007674275944600428,
        "p": -1500000.000000038,
        "q": -900000.0000000356
      },
      {
        "id": 2,
        "energized": 1,
        "u_pu": 0.9922873497821685,
        "u": 9922.873497821685,
        "u_angle": -0.007674275944600375,
        "p": 0,
        "q": 0
      }
    ],
    "line": [
      {
        "id": 3,
        "energized": 1,
        "p_from": 1503107.753161622,
        "q_from": 903107.7531616191,
        "i_from": 101.7800432564162,
        "s_from": 1753549.694600984,
        "p_to": -1500000.000000038,
        "q_to": -900000.0000000356,
        "i_to": 101.7800432564162,
        "s_to": 1749285.568453641
      },
      {
        "id": 4,
        "energized": 1,
        "p_from": 0,
        "q_from": 0,
        "i_from": 0,
        "s_from": 0,
        "p_to": 0,
        "q_to": 0,
        "i_to": 0,
        "s_to": 0
      }
    ],
    "source": [
      {
        "id": 5,
        "energized": 1,
        "p": 1503107.753161622,
        "q": 903107.7531616191,
        "i": 101.7800432564162,
        "s": 1753549.694600984,
        "pf": 0.8571800147948756
      }
    ],
    "sym_load": [
      {
        "id": 6,
        "energized": 1,
        "p": 1500000,
        "q": 899999.9999999999,
        "i": 101.7800432564132,
        "s": 1749285.56845359,
        "pf": 0.8574929257125443
      }
    ]
  }
}
